Version 4
SHEET 1 924 680
WIRE 400 -48 320 -48
WIRE 448 -48 400 -48
WIRE 560 -48 528 -48
WIRE 880 -48 640 -48
WIRE 128 -32 32 -32
WIRE 240 -32 240 -48
WIRE 240 -32 208 -32
WIRE 880 -32 880 -48
WIRE 448 48 416 48
WIRE 560 48 528 48
WIRE 880 48 880 32
WIRE 880 48 640 48
WIRE 32 128 32 -32
WIRE 848 224 640 224
WIRE 400 240 400 -48
WIRE 448 240 400 240
WIRE 560 240 560 224
WIRE 560 240 528 240
WIRE 848 256 848 224
WIRE 32 272 32 208
WIRE 128 272 32 272
WIRE 240 272 208 272
WIRE 416 272 416 48
WIRE 416 272 320 272
WIRE 448 272 416 272
WIRE 448 336 448 272
WIRE 560 336 528 336
WIRE 848 336 848 320
WIRE 848 336 640 336
WIRE 0 0 0 0
SYMBOL voltage 32 112 R0
SYMATTR InstName V1
SYMBOL res 544 -64 R90
WINDOW 0 0 56 VBottom 2
WINDOW 3 32 56 VTop 2
SYMATTR InstName R1
SYMBOL res 544 224 R90
WINDOW 0 0 56 VBottom 2
WINDOW 3 32 56 VTop 2
SYMATTR InstName R2
SYMBOL res 224 -48 R90
WINDOW 0 0 56 VBottom 2
WINDOW 3 32 56 VTop 2
SYMATTR InstName R3
SYMBOL res 224 256 R90
WINDOW 0 0 56 VBottom 2
WINDOW 3 32 56 VTop 2
SYMATTR InstName R4
SYMBOL res 544 32 R90
WINDOW 0 0 56 VBottom 2
WINDOW 3 32 56 VTop 2
SYMATTR InstName R5
SYMBOL res 544 320 R90
WINDOW 0 0 56 VBottom 2
WINDOW 3 32 56 VTop 2
SYMATTR InstName R6
SYMBOL ind 656 -64 R90
WINDOW 0 5 56 VBottom 2
WINDOW 3 32 56 VTop 2
SYMATTR InstName L1
SYMBOL ind 656 208 R90
WINDOW 0 5 56 VBottom 2
WINDOW 3 32 56 VTop 2
SYMATTR InstName L2
SYMBOL ind 336 -64 R90
WINDOW 0 5 56 VBottom 2
WINDOW 3 32 56 VTop 2
SYMATTR InstName L3
SYMBOL ind 336 256 R90
WINDOW 0 5 56 VBottom 2
WINDOW 3 32 56 VTop 2
SYMATTR InstName L4
SYMBOL ind 656 32 R90
WINDOW 0 5 56 VBottom 2
WINDOW 3 32 56 VTop 2
SYMATTR InstName L5
SYMBOL ind 656 320 R90
WINDOW 0 5 56 VBottom 2
WINDOW 3 32 56 VTop 2
SYMATTR InstName L6
SYMBOL cap 864 -32 R0
SYMATTR InstName C1
SYMBOL cap 832 256 R0
SYMATTR InstName C2
