Version 4
SHEET 1 924 680
WIRE 464 -48 352 -48
WIRE 640 -48 544 -48
WIRE 640 32 640 -48
WIRE 272 64 272 -48
FLAG 640 96 0
FLAG 272 144 0
SYMBOL res 368 -64 R90
WINDOW 0 0 56 VBottom 2
WINDOW 3 32 56 VTop 2
SYMATTR InstName R1
SYMATTR Value 1000
SYMBOL res 560 -64 R90
WINDOW 0 0 56 VBottom 2
WINDOW 3 32 56 VTop 2
SYMATTR InstName R2
SYMATTR Value 500
SYMBOL cap 624 32 R0
SYMATTR InstName C1
SYMATTR Value 0.0001
SYMBOL voltage 272 48 R0
WINDOW 123 0 0 Left 0
WINDOW 39 0 0 Left 0
SYMATTR InstName V1
SYMATTR Value SINE(0 4 1000)
TEXT 238 168 Left 2 !.tran 0 0.001 0 0.00001
