Version 4
SHEET 1 880 680
SYMBOL res 160 80 R0
SYMATTR InstName R1
SYMBOL voltage -112 304 R0
SYMATTR InstName V1
SYMBOL voltage 496 80 R0
SYMATTR InstName V2
SYMBOL Misc\\NIGBT 128 288 R0
SYMATTR InstName Z1
SYMATTR Prefix X
