Version 4
SHEET 1 880 680
WIRE 496 48 176 48
WIRE 176 96 176 48
WIRE 496 96 496 48
WIRE -32 256 -112 256
WIRE 128 256 48 256
WIRE 176 288 176 176
WIRE -112 320 -112 256
WIRE 128 368 128 256
WIRE 176 448 176 384
WIRE 496 448 496 176
WIRE 496 448 176 448
WIRE -112 464 -112 400
WIRE 128 464 128 368
WIRE 128 464 -112 464
FLAG 496 448 0
FLAG 128 464 0
SYMBOL res 160 80 R0
SYMATTR InstName R1
SYMATTR Value 10k
SYMBOL voltage -112 304 R0
WINDOW 123 0 0 Left 0
WINDOW 39 0 0 Left 0
SYMATTR InstName V1
SYMATTR Value PULSE(0 12 0 0 0 0.1 0.5 100)
SYMBOL voltage 496 80 R0
WINDOW 123 0 0 Left 0
WINDOW 39 0 0 Left 0
SYMATTR InstName V2
SYMATTR Value 200
SYMBOL Misc\\NIGBT 128 288 R0
SYMATTR InstName Z1
SYMATTR Prefix X
SYMATTR Value irgb4060dpbf
SYMBOL res 64 240 R90
WINDOW 0 0 56 VBottom 2
WINDOW 3 32 56 VTop 2
SYMATTR InstName R2
SYMATTR Value 100
TEXT -232 104 Left 2 !.lib /home/leonardo/Desktop/FSAE/inverter-simulation/parallel-shit/irgb4060dpbf.spi
TEXT -234 488 Left 2 !.tran 10m
